Version 4
SHEET 1 1332 680
WIRE 192 -496 192 -544
WIRE 528 -496 192 -496
WIRE 528 -432 528 -496
WIRE 192 -416 192 -496
WIRE 192 -416 16 -416
WIRE 464 -400 352 -400
WIRE 480 -400 464 -400
WIRE 16 -384 16 -416
WIRE 352 -368 352 -400
WIRE -32 -352 -48 -352
WIRE 704 -336 704 -512
WIRE 528 -320 528 -352
WIRE 16 -272 16 -304
WIRE 464 -272 464 -400
WIRE 192 -256 192 -416
WIRE 352 -256 352 -304
WIRE -48 -208 -48 -352
WIRE 80 -208 -48 -208
WIRE -672 -160 -672 -208
WIRE -528 -160 -528 -208
WIRE -400 -160 -400 -208
WIRE 80 -160 80 -208
WIRE 704 -144 704 -256
WIRE 768 -144 704 -144
WIRE 880 -144 832 -144
WIRE 960 -144 880 -144
WIRE 704 -128 704 -144
WIRE 880 -96 880 -144
WIRE 192 -64 192 -176
WIRE 352 -64 192 -64
WIRE 368 -64 352 -64
WIRE 464 -64 464 -192
WIRE 464 -64 416 -64
WIRE 528 -64 464 -64
WIRE 656 -64 608 -64
WIRE 192 -48 192 -64
WIRE -672 -32 -672 -80
WIRE -528 -32 -528 -80
WIRE -400 -32 -400 -80
WIRE 48 32 0 32
WIRE 80 32 80 -80
WIRE 80 32 64 32
WIRE 144 32 80 32
WIRE 704 32 704 -48
WIRE 880 32 880 -16
WIRE 192 96 192 48
FLAG 0 32 W1
IOPIN 0 32 In
FLAG 704 -512 Vp
IOPIN 704 -512 In
FLAG -672 -32 0
FLAG -528 -32 0
FLAG -672 -208 W1
IOPIN -672 -208 In
FLAG -528 -208 Vp
IOPIN -528 -208 In
FLAG 704 32 0
FLAG 880 32 0
FLAG 528 -320 0
FLAG 352 -256 0
FLAG -400 -32 0
FLAG -400 -208 Vb
IOPIN -400 -208 In
FLAG 192 -544 Vb
IOPIN 192 -544 In
FLAG 16 -272 0
FLAG 192 96 0
SYMBOL voltage -672 -176 R0
WINDOW 3 -259 214 Left 2
WINDOW 123 0 0 Left 0
WINDOW 39 0 0 Left 0
SYMATTR Value PULSE(0 6 0 0.1p 0.1p 35ns 70ns)
SYMATTR InstName V1
SYMBOL voltage -528 -176 R0
WINDOW 123 0 0 Left 0
WINDOW 39 0 0 Left 0
SYMATTR InstName V2
SYMATTR Value 29
SYMBOL cap 416 -80 R90
WINDOW 0 0 32 VBottom 2
WINDOW 3 32 32 VTop 2
SYMATTR InstName C1
SYMATTR Value 100nF
SYMBOL ind 688 -352 R0
SYMATTR InstName L1
SYMATTR Value 400µH
SYMBOL res 864 -112 R0
SYMATTR InstName R3
SYMATTR Value 50
SYMBOL res 624 -80 R90
WINDOW 0 0 56 VBottom 2
WINDOW 3 32 56 VTop 2
SYMATTR InstName R2
SYMATTR Value 10
SYMBOL res 448 -288 R0
SYMATTR InstName R1
SYMATTR Value 3.3k
SYMBOL cap 832 -160 R90
WINDOW 0 0 32 VBottom 2
WINDOW 3 32 32 VTop 2
SYMATTR InstName C2
SYMATTR Value 100nF
SYMBOL nmos 656 -144 R0
SYMATTR InstName M1
SYMATTR Value IRF510
SYMBOL cap 336 -368 R0
SYMATTR InstName C3
SYMATTR Value 1µF
SYMBOL nmos 144 -48 R0
SYMATTR InstName M2
SYMATTR Value BS170
SYMATTR Prefix X
SYMBOL cap 64 16 R90
WINDOW 0 0 32 VBottom 2
WINDOW 3 32 32 VTop 2
SYMATTR InstName C4
SYMATTR Value 100nF
SYMBOL voltage -400 -176 R0
WINDOW 123 0 0 Left 0
WINDOW 39 0 0 Left 0
SYMATTR InstName V3
SYMATTR Value 12
SYMBOL ind 176 -272 R0
SYMATTR InstName L2
SYMATTR Value 470µH
SYMBOL res 64 -176 R0
SYMATTR InstName R4
SYMATTR Value 4.7k
SYMBOL Pot&Sw\\potentiometer 544 -336 R180
SYMATTR InstName U1
SYMATTR Value Rt=10K set=.65
SYMBOL Pot&Sw\\potentiometer 32 -288 R180
SYMATTR InstName U2
TEXT -280 -80 Left 2 !.lib bs170.lib
TEXT -408 -512 Left 2 !.tran 1000us
TEXT -280 -8 Left 2 !.inc RD16HHF1.txt
